Estimador_Hibrido/sist/ieee14-30.cdf
 08/19/93 UW ARCHIVE           100.0  1962 W IEEE 14 Bus Test Case
=========1=========2=========3=========4=========5=========6=========7=========8=========9=========0=========1=========2=========3==
1234 NNNNNNNNNNNN AAZZZ TT X.XXXX+XXX.XX+XXXXX.XX+XXXXX.XX+XXXXX.XX+XXXX.XX XXXX.XX X.XXXX+XXXX.XX+XXXX.XX+XX.XXXX+XX.XXXX 1234 1234
BUS DATA FOLLOWS                            14 ITEMS
   1 Bus 1     HV  1  1  3 1.0600 -30.00     0.00     0.00   232.39  -16.55    0.00 1.0600    0.00    0.00  0.0000  0.0000    0
   2 Bus 2     HV  1  1  2 1.0450 -34.98    21.70    12.70    40.00   43.56    0.00 1.0450   50.00  -40.00  0.0000  0.0000    0
   3 Bus 3     HV  1  1  2 1.0100 -42.73    94.20    19.00     0.00   25.08    0.00 1.0100   40.00    0.00  0.0000  0.0000    0
   4 Bus 4     HV  1  1  0 1.0180 -40.31    47.80    -3.90     0.00    0.00    0.00 0.0000    0.00    0.00  0.0000  0.0000    0
   5 Bus 5     HV  1  1  0 1.0200 -38.77     7.60     1.60     0.00    0.00    0.00 0.0000    0.00    0.00  0.0000  0.0000    0
   6 Bus 6     LV  1  1  2 1.0700 -44.22    11.20     7.50     0.00   12.73    0.00 1.0700   24.00   -6.00  0.0000  0.0000    0
   7 Bus 7     ZV  1  1  0 1.0620 -43.36     0.00     0.00     0.00    0.00    0.00 0.0000    0.00    0.00  0.0000  0.0000    0
   8 Bus 8     TV  1  1  2 1.0900 -43.36     0.00     0.00     0.00   17.62    0.00 1.0900   24.00   -6.00  0.0000  0.0000    0
   9 Bus 9     LV  1  1  0 1.0560 -44.94    29.50    16.60     0.00    0.00    0.00 0.0000    0.00    0.00  0.0000  0.1900    0
  10 Bus 10    LV  1  1  0 1.0510 -45.10     9.00     5.80     0.00    0.00    0.00 0.0000    0.00    0.00  0.0000  0.0000    0
  11 Bus 11    LV  1  1  0 1.0570 -44.79     3.50     1.80     0.00    0.00    0.00 0.0000    0.00    0.00  0.0000  0.0000    0
  12 Bus 12    LV  1  1  0 1.0550 -45.08     6.10     1.60     0.00    0.00    0.00 0.0000    0.00    0.00  0.0000  0.0000    0
  13 Bus 13    LV  1  1  0 1.0500 -45.16    13.50     5.80     0.00    0.00    0.00 0.0000    0.00    0.00  0.0000  0.0000    0
  14 Bus 14    LV  1  1  0 1.0360 -46.03    14.90     5.00     0.00    0.00    0.00 0.0000    0.00    0.00  0.0000  0.0000    0
-999
=========1=========2=========3=========4=========5=========6=========7=========8=========9=========0=========1=========2=========3==
1234 1234 AAZZZ C T+xx.xxxxxx+xx.xxxxxx xxx.xxxxx 12345 12345 12345 1234 1  x.xxxx +xxx.xx x.xxxx x.xxxx .xxxxx  x.xxxx  x.xxxx 1234
BRANCH DATA FOLLOWS                         21 ITEMS
   1    2  1  1 1 0  0.019380  0.059170   0.05280     0     0     0    0 0  0.0000    0.00 0.0000 0.0000 .00000  0.0000  0.0000
   1    5  1  1 1 0  0.054030  0.223040   0.04920     0     0     0    0 0  0.0000    0.00 0.0000 0.0000 .00000  0.0000  0.0000
   2    3  1  1 1 0  0.046990  0.197970   0.04380     0     0     0    0 0  0.0000    0.00 0.0000 0.0000 .00000  0.0000  0.0000
   2    4  1  1 1 0  0.058110  0.176320   0.03400     0     0     0    0 0  0.0000    0.00 0.0000 0.0000 .00000  0.0000  0.0000
   2    5  1  1 1 0  0.056950  0.173880   0.03460     0     0     0    0 0  0.0000    0.00 0.0000 0.0000 .00000  0.0000  0.0000
   3    4  1  1 1 0  0.067010  0.171030   0.01280     0     0     0    0 0  0.0000    0.00 0.0000 0.0000 .00000  0.0000  0.0000
   4    5  1  1 1 0  0.013350  0.042110   0.00000     0     0     0    0 0  0.0000    0.00 0.0000 0.0000 .00000  0.0000  0.0000
   4    7  1  1 1 0  0.000000  0.209120   0.00000     0     0     0    0 0  0.9780    0.00 0.0000 0.0000 .00000  0.0000  0.0000
   4    9  1  1 1 0  0.000000  0.556180   0.00000     0     0     0    0 0  0.9690    0.00 0.0000 0.0000 .00000  0.0000  0.0000
   5    6  1  1 1 0  0.000000  0.252020   0.00000     0     0     0    0 0  0.9320    0.00 0.0000 0.0000 .00000  0.0000  0.0000
   6   11  1  1 1 0  0.094980  0.198900   0.00000     0     0     0    0 0  0.0000    0.00 0.0000 0.0000 .00000  0.0000  0.0000
   6   12  1  1 1 0  0.122910  0.255810   0.00000     0     0     0    0 0  0.0000    0.00 0.0000 0.0000 .00000  0.0000  0.0000
   6   13  1  1 1 0  0.066150  0.130270   0.00000     0     0     0    0 0  0.0000    0.00 0.0000 0.0000 .00000  0.0000  0.0000
   7    8  1  1 1 0  0.000000  0.176150   0.00000     0     0     0    0 0  0.0000    0.00 0.0000 0.0000 .00000  0.0000  0.0000
   7    9  1  1 1 0  0.000000  0.110010   0.00000     0     0     0    0 0  0.0000    0.00 0.0000 0.0000 .00000  0.0000  0.0000
   9   10  1  1 1 0  0.031810  0.084500   0.00000     0     0     0    0 0  0.0000    0.00 0.0000 0.0000 .00000  0.0000  0.0000
   9   14  1  1 1 0  0.127110  0.270380   0.00000     0     0     0    0 0  0.0000    0.00 0.0000 0.0000 .00000  0.0000  0.0000
  10   11  1  1 1 0  0.082050  0.192070   0.00000     0     0     0    0 0  0.0000    0.00 0.0000 0.0000 .00000  0.0000  0.0000
  12   13  1  1 1 0  0.220920  0.199880   0.00000     0     0     0    0 0  0.0000    0.00 0.0000 0.0000 .00000  0.0000  0.0000
  13   14  1  1 1 0  0.170930  0.348020   0.00000     0     0     0    0 0  0.0000    0.00 0.0000 0.0000 .00000  0.0000  0.0000
-999
LOSS ZONES FOLLOWS                     1 ITEMS
  1 IEEE 14 BUS
-99
INTERCHANGE DATA FOLLOWS                 1 ITEMS
 1    2 Bus 2     HV    0.0  999.99  IEEE14  IEEE 14 Bus Test Case
-9
TIE LINES FOLLOWS                     0 ITEMS
-999
END OF DATA
